mtd/3phase_linearization/LVTestCase_copy/LVTest_EXP_ElemPowers.CSV
Element, Nterminals, Nconductors, P_1, Q_1, ...
"Vsource.source", 2, 3,   -21.2352,   -7.67202,   -17.8407,   -7.24009,   -19.9179,   -4.51602,          0,          0,          0,          0,          0,          0
"Line.line1", 2, 3,    22.4793,    7.28389,    20.3335,    6.68464,    16.1631,    5.28062,   -22.4744,   -7.28374,   -20.3298,   -6.68334,   -16.1615,   -5.28047
"Line.line2", 2, 3,    22.4744,    7.28374,    20.3298,    6.68334,    16.1615,    5.28047,   -22.4739,   -7.28373,   -20.3294,    -6.6832,   -16.1613,   -5.28045
"Line.line3", 2, 3,    22.4739,    7.28373,    20.3294,     6.6832,    16.1613,    5.28045,   -22.4734,   -7.28371,   -20.3291,   -6.68307,   -16.1611,   -5.28044
"Line.line4", 2, 3,    22.4734,    7.28371,    20.3291,    6.68307,    16.1611,    5.28044,    -22.473,    -7.2837,   -20.3288,   -6.68296,    -16.161,   -5.28042
"Line.line5", 2, 3,     22.473,     7.2837,    20.3288,    6.68296,     16.161,    5.28042,   -22.4723,   -7.28368,   -20.3283,   -6.68278,   -16.1608,    -5.2804
"Line.line6", 2, 3,    22.4723,    7.28368,    20.3283,    6.68278,    16.1608,     5.2804,   -22.4268,    -7.2823,   -20.2946,   -6.67076,   -16.1454,   -5.27903
"Line.line7", 2, 3,    22.4268,     7.2823,    20.2946,    6.67076,    16.1454,    5.27903,   -22.4247,   -7.28224,    -20.293,   -6.67022,   -16.1447,   -5.27897
"Line.line8", 2, 3,    22.4247,    7.28224,     20.293,    6.67022,    16.1447,    5.27897,    -22.423,   -7.28218,   -20.2918,   -6.66977,   -16.1442,   -5.27892
"Line.line9", 2, 3,     22.423,    7.28218,    20.2918,    6.66977,    16.1442,    5.27892,   -22.4216,   -7.28214,   -20.2907,   -6.66938,   -16.1437,   -5.27887
"Line.line10", 2, 3,    22.4216,    7.28214,    20.2907,    6.66938,    16.1437,    5.27887,   -22.4204,   -7.28211,   -20.2899,   -6.66909,   -16.1433,   -5.27884
"Line.line11", 2, 3,    22.4204,    7.28211,    20.2899,    6.66909,    16.1433,    5.27884,   -22.4194,   -7.28207,   -20.2891,   -6.66881,   -16.1429,   -5.27881
"Line.line12", 2, 3,    22.4194,    7.28207,    20.2891,    6.66881,    16.1429,    5.27881,   -22.4188,   -7.28205,   -20.2886,   -6.66864,   -16.1427,   -5.27879
"Line.line13", 2, 3,    22.4188,    7.28205,    20.2886,    6.66864,    16.1427,    5.27879,   -22.4172,   -7.28201,   -20.2874,   -6.66822,   -16.1422,   -5.27874
"Line.line14", 2, 3,    22.4172,    7.28201,    20.2874,    6.66822,    16.1422,    5.27874,   -22.4042,   -7.28161,   -20.2779,   -6.66481,   -16.1378,   -5.27835
"Line.line15", 2, 3, -2.52575E-011, 1.46837E-011,          0,          0,          0,          0, 2.52575E-011, -1.46837E-011,          0,          0,          0,          0
"Line.line16", 2, 3,    22.4042,    7.28161,    20.2779,    6.66481,    16.1378,    5.27835,   -22.3885,   -7.28114,   -20.2662,   -6.66066,   -16.1325,   -5.27788
"Line.line17", 2, 3, 6.51986E-011, -4.10991E-012, 5.07218E-011, 2.90446E-011,          0,          0, -6.51986E-011, 4.10991E-012, -5.07218E-011, -2.90446E-011,          0,          0
"Line.line18", 2, 3,    22.3885,    7.28114,    20.2662,    6.66066,    16.1325,    5.27788,   -22.3875,   -7.28111,   -20.2654,   -6.66038,   -16.1322,   -5.27784
"Line.line19", 2, 3, -6.51986E-011, 4.10991E-012,          0,          0,          0,          0, 6.51986E-011, -4.10991E-012,          0,          0,          0,          0
"Line.line20", 2, 3,    22.3875,    7.28111,    20.2654,    6.66038,    16.1322,    5.27784,   -22.3863,   -7.28107,   -20.2645,   -6.66006,   -16.1318,   -5.27781
"Line.line21", 2, 3,          0,          0, 1.15966E-010, 3.27283E-011, 1.17094E-010, -2.13065E-012,          0,          0, -1.15966E-010, -3.27283E-011, -1.17094E-010, 2.13065E-012
"Line.line22", 2, 3,    22.3863,    7.28107,    20.2645,    6.66006,    16.1318,    5.27781,   -22.3843,   -7.28101,   -20.2631,   -6.65954,   -16.1311,   -5.27775
"Line.line23", 2, 3, 1.45081E-010, 1.70376E-011, 1.4501E-010, -1.79935E-011, 1.17103E-010, 1.52868E-012, -1.45081E-010, -1.70376E-011, -1.4501E-010, 1.79935E-011, -1.17103E-010, -1.52868E-012
"Line.line24", 2, 3,    22.3843,    7.28101,    20.2631,    6.65954,    16.1311,    5.27775,   -22.3807,    -7.2809,   -20.2604,   -6.65859,   -16.1299,   -5.27764
"Line.line25", 2, 3, 9.04561E-011, -1.87936E-011, 5.07218E-011, 2.90446E-011, 1.17099E-010, -3.00989E-013, -9.04561E-011, 1.87936E-011, -5.07218E-011, -2.90446E-011, -1.17099E-010, 3.00989E-013
"Line.line26", 2, 3,    2.15489,   0.708062, -3.44571E-010, -3.39439E-011, -3.47534E-010, -2.18896E-011,   -2.15432,  -0.708019, 3.44571E-010, 3.39427E-011, 3.47535E-010, 2.18904E-011
"Line.line27", 2, 3,    20.2258,    6.57284,    20.2604,    6.65859,    16.1299,    5.27764,   -20.1913,   -6.57217,   -20.2257,   -6.64904,   -16.1137,   -5.27441
"Line.line28", 2, 3, 2.52575E-011, -1.46837E-011,          0,          0, -4.70296E-015, -1.82967E-012, -2.52575E-011, 1.46837E-011,          0,          0, 4.70296E-015, 1.82967E-012
"Line.line29", 2, 3,    1.07718,   0.354018, 2.05901E-013, 5.1781E-012, 7.31309E-012, -9.32432E-013,   -1.07714,  -0.354015, -2.05904E-013, -5.1781E-012, -7.31309E-012, 9.3243E-013
"Line.line30", 2, 3,    1.07715,   0.354001, -3.33637E-010, -3.18057E-011, -3.36563E-010, -2.2489E-011,   -1.07711,  -0.353998, 3.33637E-010, 3.18056E-011, 3.36563E-010, 2.24891E-011
"Line.line31", 2, 3,    20.1913,    6.57217,    20.2257,    6.64904,    16.1137,    5.27441,   -20.1821,     -6.572,   -20.2165,   -6.64649,   -16.1094,   -5.27355
"Line.line32", 2, 3, 9.77979E-011, -6.16487E-012, 8.15551E-011, 4.60463E-012, 8.7824E-011, -2.25742E-013, -9.77979E-011, 6.16487E-012, -8.15551E-011, -4.60463E-012, -8.7824E-011, 2.25742E-013
"Line.line33", 2, 3,    1.07714,   0.354015, -1.2187E-012, -2.73504E-012, -1.8294E-012, -2.24101E-013,   -1.07705,  -0.354009, 1.2187E-012, 2.73504E-012, 1.8294E-012, 2.24103E-013
"Line.line34", 2, 3,    1.07711,   0.353998, -1.10554E-010, 1.04933E-010, -4.68218E-010, -1.34779E-011,   -1.07711,  -0.353998, 1.10554E-010, -1.04933E-010, 4.68218E-010, 1.34779E-011
"Line.line35", 2, 3, -1.27099E-010, -8.4478E-012,    2.14742,   0.705608, -2.22861E-010, -6.67571E-012, 1.27099E-010, 8.44811E-012,   -2.14687,  -0.705567, 2.22861E-010, 6.67496E-012
"Line.line36", 2, 3,    20.1821,      6.572,    18.0691,    5.94088,    16.1094,    5.27355,   -20.1532,   -6.56957,   -18.0485,   -5.93443,   -16.0955,   -5.27244
"Line.line37", 2, 3, 8.14983E-011, -5.13739E-012, 4.89331E-011, 2.76278E-012, 7.31866E-011, -1.88118E-013, -8.14983E-011, 5.13739E-012, -4.89331E-011, -2.76278E-012, -7.31866E-011, 1.88118E-013
"Line.line38", 2, 3,    1.07711,   0.353998, -3.49117E-011, -3.68137E-011, -4.68254E-010, -2.81086E-011,   -1.07711,  -0.353998, 3.49117E-011, 3.68137E-011, 4.68254E-010, 2.81086E-011
"Line.line39", 2, 3, -1.44468E-010, -1.43219E-011,    1.07343,   0.352781, -2.33821E-010, -6.76369E-012, 1.44468E-010, 1.43219E-011,   -1.07342,  -0.352781, 2.33821E-010, 6.76366E-012
"Line.line40", 2, 3, -2.36307E-013, -5.20672E-013,    1.07344,   0.352785, -3.65637E-012, -1.36147E-012, 2.36307E-013, 5.20672E-013,    -1.0734,  -0.352782, 3.65637E-012, 1.36146E-012
"Line.line41", 2, 3,    20.1532,    6.56957,    18.0485,    5.93443,    16.0955,    5.27244,   -20.1332,   -6.56789,   -18.0342,   -5.92994,   -16.0858,   -5.27167
"Line.line42", 2, 3, -1.13176E-009, 1.93398E-009, -1.55016E-009, -2.09529E-009, 2.34324E-009, 3.32407E-009, 1.13176E-009, -1.93398E-009, 1.55016E-009, 2.09529E-009, -2.34324E-009, -3.32407E-009
"Line.line43", 2, 3, 7.98823E-011, 2.11476E-011, 1.30488E-010, 7.36741E-012, 1.17108E-010, 3.35834E-012, -7.98823E-011, -2.11476E-011, -1.30488E-010, -7.36741E-012, -1.17108E-010, -3.35834E-012
"Line.line44", 2, 3,    1.07711,   0.353998, -8.1804E-011, 4.68182E-012, -5.40365E-014, -2.1946E-011,    -1.0771,  -0.353997, 8.1804E-011, -4.68182E-012, 5.40361E-014, 2.1946E-011
"Line.line45", 2, 3, -3.56477E-011, -5.50933E-011,    1.07342,   0.352781, -2.33838E-010, -1.407E-011, 3.56477E-011, 5.50933E-011,   -1.07342,   -0.35278, 2.33838E-010, 1.407E-011
"Line.line46", 2, 3, -2.38724E-012, -1.60736E-013,     1.0734,   0.352782, 3.65372E-012, 2.19843E-013, 2.38724E-012, 1.60738E-013,   -1.07329,  -0.352774, -3.65372E-012, -2.19838E-013
"Line.line47", 2, 3,    20.1332,    6.56789,    18.0342,    5.92994,    16.0858,    5.27167,    -20.118,   -6.56662,   -18.0235,   -5.92656,   -16.0785,   -5.27109
"Line.line48", 2, 3, -7.51305E-010, 2.18419E-009, -2.23618E-009, -1.95158E-009, 4.73437E-010, 2.91922E-009, 7.51305E-010, -2.18419E-009, 2.23618E-009, 1.95158E-009, -4.73437E-010, -2.91922E-009
"Line.line49", 2, 3, 1.0103E-010, -5.87348E-011, 2.90446E-011, -5.07218E-011,          0,          0, -1.0103E-010, 5.87348E-011, -2.90446E-011, 5.07218E-011,          0,          0
"Line.line50", 2, 3,     1.0771,   0.353997, -3.08376E-011, -2.0286E-011, 2.92344E-011, -1.10451E-011,    -1.0771,  -0.353997, 3.08376E-011, 2.0286E-011, -2.92344E-011, 1.10451E-011
"Line.line51", 2, 3, -1.24229E-012, -1.50658E-011,    1.07342,    0.35278, -1.75378E-010, -1.05525E-011, 1.24228E-012, 1.50658E-011,   -1.07341,   -0.35278, 1.75378E-010, 1.05525E-011
"Line.line52", 2, 3,     20.118,    6.56662,    18.0235,    5.92656,    16.0785,    5.27109,   -20.1159,   -6.56644,   -18.0219,   -5.92607,   -16.0774,     -5.271
"Line.line53", 2, 3, 8.47598E-010, 5.4458E-011, 7.45952E-010, -1.83992E-010, -1.16715E-010, -1.07197E-011, -8.47598E-010, -5.4458E-011, -7.45952E-010, 1.83992E-010, 1.16715E-010, 1.07197E-011
"Line.line54", 2, 3, -1.58879E-009, 2.1317E-009, -1.75314E-009, -1.27243E-009, 9.41911E-010, 3.50226E-009, 1.58879E-009, -2.1317E-009, 1.75314E-009, 1.27243E-009, -9.41911E-010, -3.50226E-009
"Line.line55", 2, 3, -3.99412E-011, -1.05738E-011, -3.2622E-011, -1.84185E-012, -2.92723E-011, 9.9008E-013, 3.99412E-011, 1.05738E-011, 3.2622E-011, 1.84185E-012, 2.92723E-011, -9.9008E-013
"Line.line56", 2, 3,     1.0771,   0.353997, -1.30753E-011, 3.55367E-012, 2.92614E-011, -7.20467E-014,   -1.07709,  -0.353997, 1.30753E-011, -3.55367E-012, -2.92614E-011, 7.20455E-014
"Line.line57", 2, 3, -1.0846E-012, 1.53634E-011,    1.07341,    0.35278, -1.16927E-010, -1.06882E-011, 1.0846E-012, -1.53634E-011,   -1.07341,   -0.35278, 1.16927E-010, 1.06882E-011
"Line.line58", 2, 3,    20.1159,    6.56644,    18.0219,    5.92607,    16.0774,      5.271,    -20.106,   -6.56561,   -18.0149,   -5.92386,   -16.0727,   -5.27062
"Line.line59", 2, 3, 4.72301E-010, 6.20688E-011, 6.3831E-010, -2.37274E-010, -2.33444E-010, -2.87329E-011, -4.72301E-010, -6.20688E-011, -6.3831E-010, 2.37274E-010, 2.33444E-010, 2.87329E-011
"Line.line60", 2, 3, -1.2525E-009, 1.66772E-009, -1.5364E-009, -1.41661E-009, 1.40741E-009, 2.68361E-009, 1.2525E-009, -1.66772E-009, 1.5364E-009, 1.41661E-009, -1.40741E-009, -2.68361E-009
"Line.line61", 2, 3,          0,          0, 2.53609E-011, 1.45223E-011, -4.70296E-015, -1.82967E-012,          0,          0, -2.53609E-011, -1.45223E-011, 4.70296E-015, 1.82967E-012
"Line.line62", 2, 3,    1.07709,   0.353997, 1.78692E-012, -6.99429E-012, -7.31534E-012, 1.80114E-014,   -1.07707,  -0.353995, -1.78692E-012, 6.99429E-012, 7.31535E-012, -1.80099E-014
"Line.line63", 2, 3, 1.05514E-010, 2.08729E-011,    1.07341,    0.35278, -1.6961E-014, -7.30638E-012, -1.05514E-010, -2.08729E-011,   -1.07341,   -0.35278, 1.69613E-014, 7.30638E-012
"Line.line64", 2, 3,    17.9747,    5.86533,    18.0149,    5.92386,    16.0727,    5.27062,   -17.9732,   -5.86521,   -18.0134,   -5.92352,   -16.0717,   -5.27044
"Line.line65", 2, 3,     2.1313,   0.700279, 3.69115E-012, 5.541E-015, 1.00236E-011, -8.15566E-013,   -2.13052,   -0.70022, -3.69116E-012, -5.52308E-015, -1.00237E-011, 8.15536E-013
"Line.line66", 2, 3, 3.59205E-010, 1.2758E-010, 1.06385E-009, -3.95456E-010, 5.50905E-014, 2.91736E-011, -3.59205E-010, -1.2758E-010, -1.06385E-009, 3.95456E-010, -5.50905E-014, -2.91736E-011
"Line.line67", 2, 3, -1.08328E-009, 1.03158E-009, -2.01303E-009, -1.28713E-009, 1.40815E-009, 3.03404E-009, 1.08328E-009, -1.03158E-009, 2.01303E-009, 1.28713E-009, -1.40815E-009, -3.03404E-009
"Line.line68", 2, 3, 2.52575E-011, -1.46837E-011, -7.26115E-012, 1.26804E-011, -2.35148E-015, -9.14833E-013, -2.52575E-011, 1.46837E-011, 7.26115E-012, -1.26804E-011, 2.35148E-015, 9.14833E-013
"Line.line69", 2, 3,    1.07707,   0.353995, -4.05926E-012, -1.17425E-012, -1.82827E-012, 2.33107E-013,   -1.07699,  -0.353989, 4.05926E-012, 1.17424E-012, 1.82828E-012, -2.33106E-013
"Line.line70", 2, 3, -2.72353E-011, -3.78729E-011,    1.07341,    0.35278,          0,          0, 2.72353E-011, 3.78729E-011,    -1.0734,  -0.352779,          0,          0
"Line.line71", 2, 3,    17.9732,    5.86521,    18.0134,    5.92352,    16.0717,    5.27044,   -17.9556,   -5.86376,   -17.9956,   -5.91958,   -16.0595,   -5.26829
"Line.line72", 2, 3,    1.06526,    0.35011, 2.47722E-012, 4.05422E-013, -1.82274E-012, 3.28819E-015,   -1.06517,  -0.350103, -2.47722E-012, -4.05419E-013, 1.82275E-012, -3.28673E-015
"Line.line73", 2, 3,    1.06526,    0.35011, 2.47722E-012, 4.05422E-013, -1.82274E-012, 3.28819E-015,   -1.06517,  -0.350103, -2.47722E-012, -4.05419E-013, 1.82275E-012, -3.28673E-015
"Line.line74", 2, 3, 7.93807E-011, 2.11486E-011, 4.99363E-010, -8.24043E-011, 1.16832E-010, 7.27136E-011, -7.93807E-011, -2.11486E-011, -4.99363E-010, 8.24043E-011, -1.16832E-010, -7.27136E-011
"Line.line75", 2, 3, -1.00886E-009, 1.39195E-009, -9.30283E-010, -1.06946E-009, 1.64164E-009, 2.97514E-009, 1.00886E-009, -1.39195E-009, 9.30283E-010, 1.06946E-009, -1.64164E-009, -2.97514E-009
"Line.line76", 2, 3, 1.44642E-011, -4.18466E-012, 1.44957E-011, 4.09104E-012, 1.46338E-011, -1.40987E-012, -1.44642E-011, 4.18466E-012, -1.44957E-011, -4.09104E-012, -1.46338E-011, 1.40987E-012
"Line.line77", 2, 3, -1.17285E-011, 8.38331E-012,     1.0734,   0.352779, -1.46117E-011, 4.90572E-013, 1.17285E-011, -8.3833E-012,   -1.07338,  -0.352777, 1.46117E-011, -4.90577E-013
"Line.line78", 2, 3,    17.9556,    5.86376,    17.9956,    5.91958,    16.0595,    5.26829,   -17.9494,   -5.86325,   -17.9895,    -5.9182,   -16.0553,   -5.26754
"Line.line79", 2, 3, -9.65456E-011, 1.23055E-010, 4.77576E-010, 7.25843E-011, 3.50248E-010, 8.68597E-011, 9.65456E-011, -1.23055E-010, -4.77576E-010, -7.25843E-011, -3.50248E-010, -8.68597E-011
"Line.line80", 2, 3, -1.24259E-009, 1.09031E-009, -6.45131E-010, -1.04029E-009, 1.29113E-009, 2.93208E-009, 1.24259E-009, -1.09031E-009, 6.45131E-010, 1.04029E-009, -1.29113E-009, -2.93208E-009
"Line.line81", 2, 3, 1.03893E-011, -3.92779E-012, 9.06316E-012, -1.12459E-012, 7.31572E-012, -1.16235E-012, -1.03893E-011, 3.92779E-012, -9.06316E-012, 1.12459E-012, -7.31572E-012, 1.16235E-012
"Line.line82", 2, 3, 9.59392E-013, 1.28514E-012,    1.07338,   0.352777, -1.82686E-012, -1.09921E-013, -9.59392E-013, -1.28515E-012,   -1.07328,   -0.35277, 1.82686E-012, 1.09919E-013
"Line.line83", 2, 3,    17.9494,    5.86325,    17.9895,     5.9182,    16.0553,    5.26754,   -17.9481,   -5.86314,   -17.9881,    -5.9179,   -16.0543,   -5.26738
"Line.line84", 2, 3, 3.80354E-010, 4.81992E-011, -2.78536E-011, -8.29411E-011, 2.33499E-010, 5.79064E-011, -3.80354E-010, -4.81992E-011, 2.78536E-011, 8.29411E-011, -2.33499E-010, -5.79064E-011
"Line.line85", 2, 3, -1.2792E-009, 1.07791E-009, -7.48964E-010, -9.90762E-010, 1.23275E-009, 2.9468E-009, 1.2792E-009, -1.07791E-009, 7.48964E-010, 9.90762E-010, -1.23275E-009, -2.9468E-009
"Line.line86", 2, 3, -1.83546E-012, -3.15718E-012,          0,          0, -4.11509E-015, -1.60096E-012, 1.83546E-012, 3.15718E-012,          0,          0, 4.11509E-015, 1.60096E-012
"Line.line87", 2, 3,    17.9481,    5.86314,    17.9881,     5.9179,    16.0543,    5.26738,   -17.9453,   -5.86292,   -17.9854,   -5.91729,   -16.0525,   -5.26705
"Line.line88", 2, 3, 3.16453E-010, -2.50438E-010, 5.57071E-011, 1.65882E-010, 5.50905E-014, 2.91736E-011, -3.16453E-010, 2.50438E-010, -5.57071E-011, -1.65882E-010, -5.50905E-014, -2.91736E-011
"Line.line89", 2, 3, -1.40791E-009, 1.05165E-009, -6.19876E-010, -1.02583E-009, 9.40546E-010, 2.85982E-009, 1.40791E-009, -1.05165E-009, 6.19876E-010, 1.02583E-009, -9.40546E-010, -2.85982E-009
"Line.line90", 2, 3,          0,          0,          0,          0, -3.52722E-015, -1.37225E-012,          0,          0,          0,          0, 3.52722E-015, 1.37225E-012
"Line.line91", 2, 3,    17.9453,    5.86292,    17.9854,    5.91729,    16.0525,    5.26705,   -17.9428,   -5.86271,   -17.9828,   -5.91672,   -16.0507,   -5.26673
"Line.line92", 2, 3, -1.35689E-009, -2.03692E-011, 3.17757E-010, -8.63197E-011, 7.44437E-012, 3.50425E-009, 1.35689E-009, 2.03692E-011, -3.17757E-010, 8.63197E-011, -7.44437E-012, -3.50425E-009
"Line.line93", 2, 3, -1.46837E-011, -2.52575E-011, -5.07218E-011, -2.90446E-011, 1.17103E-010, 1.52868E-012, 1.46837E-011, 2.52575E-011, 5.07218E-011, 2.90446E-011, -1.17103E-010, -1.52868E-012
"Line.line94", 2, 3,    17.9428,    5.86271,    17.9828,    5.91672,    16.0507,    5.26673,   -17.9413,   -5.86259,   -17.9813,   -5.91639,   -16.0497,   -5.26655
"Line.line95", 2, 3, -7.73241E-010, 9.86333E-010, -2.95708E-010, -3.03527E-010, 4.72196E-010, 2.33517E-009, 7.73241E-010, -9.86333E-010, 2.95708E-010, 3.03527E-010, -4.72196E-010, -2.33517E-009
"Line.line96", 2, 3, -7.98823E-011, -2.11476E-011, -1.15966E-010, -3.27283E-011, -5.8554E-011, -1.67917E-012, 7.98823E-011, 2.11476E-011, 1.15966E-010, 3.27283E-011, 5.8554E-011, 1.67917E-012
"Line.line97", 2, 3,    17.9413,    5.86259,    17.9813,    5.91639,    16.0497,    5.26655,   -17.9403,   -5.86251,   -17.9803,   -5.91617,    -16.049,   -5.26643
"Line.line98", 2, 3, -1.0067E-009, 5.83652E-010, -4.33475E-010, 2.88358E-010, 9.3943E-010, 2.33418E-009, 1.0067E-009, -5.83652E-010, 4.33475E-010, -2.88358E-010, -9.3943E-010, -2.33418E-009
"Line.line99", 2, 3, -1.46837E-011, -2.52575E-011, -3.2622E-011, -1.84185E-012, -8.7824E-011, 2.25742E-013, 1.46837E-011, 2.52575E-011, 3.2622E-011, 1.84185E-012, 8.7824E-011, -2.25742E-013
"Line.line100", 2, 3,    17.9403,    5.86251,    17.9803,    5.91617,     16.049,    5.26643,   -17.9389,    -5.8624,   -17.9789,   -5.91586,   -16.0481,   -5.26627
"Line.line101", 2, 3, -7.02555E-010, 2.45488E-010, 5.78959E-010, -6.9974E-010, 8.41258E-010, 7.97623E-010, 7.02555E-010, -2.45488E-010, -5.78959E-010, 6.9974E-010, -8.41258E-010, -7.97623E-010
"Line.line102", 2, 3, -6.31437E-012, 3.67092E-012, -6.34022E-012, -3.63058E-012,          0,          0, 6.31437E-012, -3.67092E-012, 6.34022E-012, 3.63058E-012,          0,          0
"Line.line103", 2, 3,    1.06175,    0.34886,    3.18818,    1.04749,    2.14418,    0.70456,   -1.06175,   -0.34886,   -3.18818,   -1.04749,   -2.14418,  -0.704557
"Line.line104", 2, 3,    16.8772,    5.51354,    14.7908,    4.86837,    13.9039,    4.56171,   -16.8763,   -5.51344,   -14.7902,    -4.8682,   -13.9034,   -4.56168
"Line.line105", 2, 3, -4.70153E-010, 4.07087E-010, 2.71861E-010, -1.11879E-009, 1.16982E-009, 8.15177E-010, 4.70153E-010, -4.07087E-010, -2.71861E-010, 1.11879E-009, -1.16982E-009, -8.15177E-010
"Line.line106", 2, 3,    1.06175,    0.34886,    3.18818,    1.04749,    2.14418,   0.704557,   -1.06175,   -0.34886,   -3.18817,   -1.04748,   -2.14418,  -0.704553
"Line.line107", 2, 3,    16.8763,    5.51344,    14.7902,     4.8682,    13.9034,    4.56168,   -16.8759,   -5.51339,   -14.7899,    -4.8681,   -13.9032,   -4.56166
"Line.line108", 2, 3, -8.82333E-010, 2.76157E-010, 5.31289E-010, -6.3481E-010, 9.36762E-010, 1.07849E-009, 8.82333E-010, -2.76157E-010, -5.31289E-010, 6.3481E-010, -9.36762E-010, -1.07849E-009
"Line.line109", 2, 3,    1.06175,    0.34886,    3.18817,    1.04748,    2.14418,   0.704553,   -1.06175,   -0.34886,   -3.18816,   -1.04748,   -2.14418,  -0.704549
"Line.line110", 2, 3,    16.8759,    5.51339,    14.7899,     4.8681,    13.9032,    4.56166,   -16.8568,   -5.51127,   -14.7772,   -4.86421,   -13.8929,   -4.56103
"Line.line111", 2, 3, -8.46213E-010, 4.97962E-010, 4.54304E-010, -6.42219E-010, 8.63644E-010, 1.02572E-009, 8.46213E-010, -4.97962E-010, -4.54304E-010, 6.42219E-010, -8.63644E-010, -1.02572E-009
"Line.line112", 2, 3,    1.06175,    0.34886,    3.18816,    1.04748,    2.14418,   0.704549,   -1.06175,   -0.34886,   -3.18815,   -1.04748,   -2.14417,  -0.704542
"Line.line113", 2, 3,    16.8568,    5.51127,    14.7772,    4.86421,    13.8929,    4.56103,   -16.8549,   -5.51106,   -14.7759,   -4.86382,   -13.8919,   -4.56097
"Line.line114", 2, 3, -8.42406E-010, 4.93653E-010, 4.46347E-010, -6.38392E-010, 8.56328E-010, 1.01843E-009, 8.42406E-010, -4.93653E-010, -4.46347E-010, 6.38392E-010, -8.56328E-010, -1.01843E-009
"Line.line115", 2, 3,    1.06175,    0.34886,    3.18815,    1.04748,    2.14417,   0.704542,   -1.06175,   -0.34886,   -3.18813,   -1.04747,   -2.14417,  -0.704534
"Line.line116", 2, 3,    1.05921,   0.348066,    2.12155,    0.69693,    2.14085,   0.703518,   -1.05921,  -0.348065,   -2.12154,  -0.696927,   -2.14084,  -0.703509
"Line.line117", 2, 3,    15.7956,    5.16299,    12.6544,    4.16689,    11.7511,    3.85745,   -15.7903,   -5.16198,   -12.6517,   -4.16547,    -11.749,   -3.85728
"Line.line118", 2, 3, -8.09646E-010, 5.03033E-010, 4.60001E-010, -6.42101E-010, 9.07436E-010, 1.02015E-009, 8.09646E-010, -5.03033E-010, -4.60001E-010, 6.42101E-010, -9.07436E-010, -1.02015E-009
"Line.line119", 2, 3,    1.06175,    0.34886,    3.18813,    1.04747,    2.14417,   0.704534,   -1.06175,   -0.34886,   -3.18811,   -1.04746,   -2.14416,  -0.704527
"Line.line120", 2, 3, -5.7348E-011, 1.64422E-011, -6.82634E-011, 2.61008E-012, -5.81959E-011, 8.10896E-014, 5.7348E-011, -1.64422E-011, 6.82634E-011, -2.61008E-012, 5.81959E-011, -8.10896E-014
"Line.line121", 2, 3,    1.05921,   0.348065,    2.12154,   0.696927,    2.14084,   0.703509,   -1.05921,  -0.348064,   -2.12153,  -0.696926,   -2.14084,  -0.703505
"Line.line122", 2, 3,    15.7903,    5.16198,    12.6517,    4.16547,     11.749,    3.85728,   -15.7807,   -5.16015,    -12.647,    -4.1629,   -11.7454,   -3.85697
"Line.line123", 2, 3, -9.80996E-010, 3.66986E-010, 4.85256E-010, -6.27636E-010, 7.61581E-010, 1.09347E-009, 9.80996E-010, -3.66986E-010, -4.85256E-010, 6.27636E-010, -7.61581E-010, -1.09347E-009
"Line.line124", 2, 3,    1.06175,    0.34886,    3.18811,    1.04746,    2.14416,   0.704527,   -1.06175,   -0.34886,    -3.1881,   -1.04746,   -2.14416,  -0.704519
"Line.line125", 2, 3, -5.56848E-011, -9.58964E-012, -6.46629E-011, -3.67259E-012, -8.72944E-011, -3.33021E-013, 5.56848E-011, 9.58964E-012, 6.46629E-011, 3.67259E-012, 8.72944E-011, 3.33021E-013
"Line.line126", 2, 3,    1.05921,   0.348064,    2.12153,   0.696926,    2.14084,   0.703505,   -1.05921,  -0.348061,   -2.12151,  -0.696919,   -2.14082,  -0.703484
"Line.line127", 2, 3,    15.7807,    5.16015,     12.647,     4.1629,    11.7454,    3.85697,   -15.7764,   -5.15933,   -12.6448,   -4.16174,   -11.7438,   -3.85682
"Line.line128", 2, 3, -1.03006E-009, 3.11363E-010, 5.82717E-010, -6.22124E-010, 6.44803E-010, 1.10831E-009, 1.03006E-009, -3.11363E-010, -5.82717E-010, 6.22124E-010, -6.44803E-010, -1.10831E-009
"Line.line129", 2, 3,    1.06175,    0.34886,     3.1881,    1.04746,    2.14416,   0.704519,   -1.06175,   -0.34886,   -3.18808,   -1.04745,   -2.14415,  -0.704509
"Line.line130", 2, 3, -3.22951E-011, 1.95788E-012, -4.12964E-011, -1.53198E-011, -2.90967E-011, 9.49855E-013, 3.22951E-011, -1.95788E-012, 4.12964E-011, 1.53198E-011, 2.90967E-011, -9.49855E-013
"Line.line131", 2, 3,    1.05921,   0.348061, 2.68055E-010, 3.3284E-011, 2.1824E-010, 6.05948E-012,   -1.05912,  -0.348054, -2.68055E-010, -3.32837E-011, -2.1824E-010, -6.05965E-012
"Line.line132", 2, 3, 9.4309E-010, 1.14699E-009,    2.12151,   0.696919,    2.14082,   0.703484, -9.43115E-010, -1.14701E-009,   -2.12144,  -0.696917,   -2.14074,  -0.703405
"Line.line133", 2, 3,    15.7764,    5.15933,    12.6448,    4.16174,    11.7438,    3.85682,   -15.7751,   -5.15908,   -12.6442,    -4.1614,   -11.7433,   -3.85678
"Line.line134", 2, 3, -8.79456E-010, 3.75371E-010, 5.45294E-010, -6.51943E-010, 7.90767E-010, 1.0861E-009, 8.79456E-010, -3.75371E-010, -5.45294E-010, 6.51943E-010, -7.90767E-010, -1.0861E-009
"Line.line135", 2, 3,    1.06175,    0.34886,    3.18808,    1.04745,    2.14415,   0.704509,   -1.06175,   -0.34886,   -3.18806,   -1.04744,   -2.14414,    -0.7045
"Line.line136", 2, 3, -6.45902E-011, 3.91576E-012, -6.46629E-011, -3.67259E-012, -4.36456E-011, 9.70127E-013, 6.45902E-011, -3.91576E-012, 6.46629E-011, 3.67259E-012, 4.36456E-011, -9.70127E-013
"Line.line137", 2, 3,    1.05912,   0.348054, 2.79495E-010, 3.68528E-012, 1.74595E-010, 7.03004E-012,   -1.05911,  -0.348053, -2.79495E-010, -3.68525E-012, -1.74595E-010, -7.03005E-012
"Line.line138", 2, 3, 9.39567E-010, 1.15533E-009,    2.12144,   0.696917,    2.14074,   0.703405, -9.39585E-010, -1.15534E-009,   -2.12138,  -0.696917,   -2.14069,  -0.703346
"Line.line139", 2, 3,    15.7751,    5.15908,    12.6442,     4.1614,    11.7433,    3.85678,   -15.7737,   -5.15881,   -12.6434,   -4.16101,   -11.7427,   -3.85674
"Line.line140", 2, 3, -9.13425E-010, 3.53031E-010, 5.23656E-010, -6.72721E-010, 7.90752E-010, 1.0788E-009, 9.13425E-010, -3.53031E-010, -5.23656E-010, 6.72721E-010, -7.90752E-010, -1.0788E-009
"Line.line141", 2, 3,    1.06175,    0.34886,    3.18806,    1.04744,    2.14414,     0.7045,   -1.06175,   -0.34886,   -3.18802,   -1.04743,   -2.14414,  -0.704486
"Line.line142", 2, 3, -1.97686E-011, -5.28429E-012, -1.97661E-011, 5.36452E-012, -2.90967E-011, 9.49855E-013, 1.97686E-011, 5.28429E-012, 1.97661E-011, -5.36452E-012, 2.90967E-011, -9.49855E-013
"Line.line143", 2, 3,    1.05911,   0.348053, 2.58009E-010, 6.07473E-011, 1.74598E-010, 8.84864E-012,   -1.05911,  -0.348053, -2.58009E-010, -6.07472E-011, -1.74598E-010, -8.84866E-012
"Line.line144", 2, 3, 9.70976E-010, 1.15182E-009,    2.12138,   0.696917,    2.14069,   0.703346, -9.70989E-010, -1.15182E-009,   -2.12134,  -0.696916,   -2.14065,  -0.703307
"Line.line145", 2, 3,    15.7737,    5.15881,    12.6434,    4.16101,    11.7427,    3.85674,   -15.7723,   -5.15855,   -12.6428,   -4.16064,   -11.7422,   -3.85669
"Line.line146", 2, 3, -9.10047E-010, 4.6036E-010, 3.14551E-010, -4.90631E-010, 8.20016E-010, 1.10794E-009, 9.10047E-010, -4.6036E-010, -3.14551E-010, 4.90631E-010, -8.20016E-010, -1.10794E-009
"Line.line147", 2, 3,    1.06175,    0.34886,    3.18802,    1.04743,    2.14414,   0.704486,   -1.06176,   -0.34886,   -3.18788,   -1.04738,   -2.14409,  -0.704416
"Line.line148", 2, 3, -2.70108E-011, -1.78107E-011, -3.59319E-011, 4.44637E-012, -4.36463E-011, 5.15472E-013, 2.70108E-011, 1.78107E-011, 3.59319E-011, -4.44637E-012, 4.36463E-011, -5.15472E-013
"Line.line149", 2, 3,    1.05911,   0.348053, 1.67054E-010, 1.85342E-011, 2.03693E-010, 6.98934E-012,    -1.0591,  -0.348052, -1.67054E-010, -1.85342E-011, -2.03693E-010, -6.98935E-012
"Line.line150", 2, 3, 8.52667E-010, 1.17845E-009, -1.47757E-009, 1.75511E-010,    2.14065,   0.703307, -8.52681E-010, -1.17844E-009, 1.47758E-009, -1.75503E-010,   -2.14061,  -0.703287
"Line.line151", 2, 3, 1.18423E-010, -1.03927E-011,    2.12134,   0.696916, 1.98146E-010, -4.31344E-011, -1.18423E-010, 1.03925E-011,   -2.12086,   -0.69688, -1.98146E-010, 4.31351E-011
"Line.line152", 2, 3,    15.7723,    5.15855,    12.6428,    4.16064,    11.7422,    3.85669,   -15.7707,   -5.15824,    -12.642,   -4.16022,   -11.7416,   -3.85664
"Line.line153", 2, 3, -6.01867E-010, -4.58108E-010, -2.73659E-010, -6.93373E-010, -4.65248E-010, 9.35459E-010, 6.01867E-010, 4.58108E-010, 2.73659E-010, 6.93373E-010, 4.65248E-010, -9.35459E-010
"Line.line154", 2, 3,    1.06176,    0.34886,    3.18788,    1.04738,    2.14409,   0.704416,   -1.06176,   -0.34886,   -3.18784,   -1.04737,   -2.14408,  -0.704401
"Line.line155", 2, 3, -6.1948E-011, -5.96855E-012, -6.46629E-011, -3.67259E-012, -5.81955E-011, 3.08417E-013, 6.1948E-011, 5.96855E-012, 6.46629E-011, 3.67259E-012, 5.81955E-011, -3.08417E-013
"Line.line156", 2, 3,     1.0591,   0.348052, 2.36084E-010, 2.471E-011, 2.03698E-010, 1.06265E-011,   -1.05909,  -0.348052, -2.36084E-010, -2.471E-011, -2.03698E-010, -1.06266E-011
"Line.line157", 2, 3, 8.17275E-010, 1.1425E-009, -1.46634E-009, 1.63168E-010,    2.14061,   0.703287, -8.17309E-010, -1.14249E-009, 1.46637E-009, -1.63144E-010,   -2.14048,  -0.703233
"Line.line158", 2, 3, 1.28959E-010, -1.65822E-011,    2.12086,    0.69688, 2.03603E-010, -4.21201E-011, -1.28959E-010, 1.65821E-011,   -2.12083,  -0.696877, -2.03603E-010, 4.21202E-011
"Line.line159", 2, 3,    15.7707,    5.15824,     12.642,    4.16022,    11.7416,    3.85664,   -15.7702,   -5.15816,   -12.6417,    -4.1601,   -11.7414,   -3.85662
"Line.line160", 2, 3, 9.26401E-011, -1.88218E-010, -2.95708E-010, -3.03527E-010, 2.33617E-010, -4.96291E-013, -9.26401E-011, 1.88218E-010, 2.95708E-010, 3.03527E-010, -2.33617E-010, 4.96291E-013
"Line.line161", 2, 3, -5.28143E-012, -8.26562E-013,    1.06294,   0.349261, -9.38935E-017, -5.68735E-014, 5.28145E-012, 8.26576E-013,   -1.06266,   -0.34924, 9.40893E-017, 5.68735E-014
"Line.line162", 2, 3,    1.06176,    0.34886,     2.1249,   0.698105,    2.14408,   0.704401,   -1.06176,  -0.348853,   -2.12486,   -0.69809,   -2.14403,  -0.704357
"Line.line163", 2, 3, -4.84426E-011, 2.93682E-012, -5.20976E-011, 3.52823E-012, -4.36466E-011, 2.88145E-013, 4.84426E-011, -2.93682E-012, 5.20976E-011, -3.52823E-012, 4.36466E-011, -2.88145E-013
"Line.line164", 2, 3,    1.05909,   0.348052, 2.44433E-010, 2.5843E-011, 2.03708E-010, 1.79009E-011,   -1.05908,  -0.348051, -2.44433E-010, -2.58429E-011, -2.03708E-010, -1.7901E-011
"Line.line165", 2, 3, 8.09065E-010, 1.15352E-009, -1.49374E-009, 1.45372E-010,    2.14048,   0.703233, -8.09077E-010, -1.15352E-009, 1.49375E-009, -1.45363E-010,   -2.14043,  -0.703214
"Line.line166", 2, 3, 8.09303E-011, -2.01528E-011,    2.12083,   0.696877, 2.327E-010, -4.03441E-011, -8.09303E-011, 2.01528E-011,    -2.1208,  -0.696875, -2.327E-010, 4.03441E-011
...