mtd/3phase_linearization/LVTestCase_copy/LVTest_VLL.Txt

SYMMETRICAL COMPONENT PHASE-PHASE VOLTAGES BY BUS (for 3-phase buses)

Bus        Mag:   V1 (kV)    p.u.     V2 (kV)   %V2/V1    V0 (kV)    %V0/V1

sourcebus     11.54      1.049   0.001087   0.009417 1.438E-015 1.246E-014
1            0.4361      1.048  0.0001589    0.03643 5.859E-017 1.344E-014
2             0.436      1.048   0.000161    0.03692 4.494E-017 1.031E-014
3             0.436      1.048  0.0001612    0.03697 5.859E-017 1.344E-014
4             0.436      1.048  0.0001614    0.03702 7.105E-017 1.63E-014
5             0.436      1.048  0.0001616    0.03707 5.684E-017 1.304E-014
6             0.436      1.048  0.0001619    0.03714 4.263E-017 9.779E-015
7            0.4353      1.046  0.0001922    0.04415 5.859E-017 1.346E-014
8            0.4353      1.046  0.0001939    0.04455 4.263E-017 9.794E-015
9            0.4353      1.046  0.0001953    0.04488 4.263E-017 9.794E-015
10           0.4353      1.046  0.0001966    0.04517 4.494E-017 1.032E-014
11           0.4352      1.046  0.0001976     0.0454 4.263E-017 9.795E-015
12           0.4352      1.046  0.0001985    0.04561 5.684E-017 1.306E-014
13           0.4352      1.046  0.0001991    0.04574 5.684E-017 1.306E-014
14           0.4352      1.046  0.0002005    0.04606 4.263E-017 9.796E-015
15            0.435      1.046  0.0002123    0.04881 7.246E-017 1.666E-014
16            0.435      1.046  0.0002123    0.04881 7.653E-017 1.759E-014
17           0.4348      1.045  0.0002277    0.05238 5.684E-017 1.307E-014
18            0.435      1.046  0.0002123    0.04881 7.246E-017 1.666E-014
19           0.4348      1.045  0.0002288    0.05263 5.859E-017 1.348E-014
20            0.435      1.046  0.0002123    0.04881 7.653E-017 1.759E-014
21           0.4348      1.045  0.0002301    0.05292 4.494E-017 1.034E-014
22            0.435      1.046  0.0002123    0.04881 4.494E-017 1.033E-014
23           0.4347      1.045  0.0002321    0.05339 5.684E-017 1.308E-014
24            0.435      1.046  0.0002123    0.04881 4.263E-017  9.8E-015
25           0.4347      1.045  0.0002358    0.05425 4.494E-017 1.034E-014
26            0.435      1.046  0.0002123    0.04881 3.178E-017 7.305E-015
27           0.4346      1.045   0.000241    0.05545 5.859E-017 1.348E-014
28           0.4341      1.043  0.0002794    0.06436 4.494E-017 1.035E-014
29            0.435      1.046  0.0002123    0.04881 3.178E-017 7.305E-015
30           0.4346      1.045  0.0002421    0.05571 5.684E-017 1.308E-014
31           0.4346      1.045  0.0002421     0.0557 4.263E-017 9.809E-015
32           0.4339      1.043  0.0002911    0.06709 5.859E-017 1.35E-014
33            0.435      1.046  0.0002123    0.04881 2.842E-017 6.534E-015
34           0.4346      1.045  0.0002451    0.05638 4.494E-017 1.034E-014
35           0.4346      1.045  0.0002422    0.05571 5.684E-017 1.308E-014
36           0.4339      1.043  0.0003189    0.07349 5.859E-017 1.35E-014
37           0.4334      1.042  0.0003137    0.07236 6.355E-017 1.466E-014
38            0.435      1.046  0.0002123    0.04881 7.105E-017 1.633E-014
39           0.4346      1.045  0.0002422    0.05573 5.859E-017 1.348E-014
40           0.4339      1.043  0.0003199    0.07372 5.684E-017 1.31E-014
41           0.4339      1.043  0.0003234    0.07453 5.684E-017 1.31E-014
42           0.4331      1.041  0.0003302    0.07624 5.859E-017 1.353E-014
43           0.4334      1.042  0.0003137    0.07236 4.263E-017 9.836E-015
44            0.435      1.046  0.0002123    0.04881 4.494E-017 1.033E-014
45           0.4346      1.045  0.0002423    0.05574 4.494E-017 1.034E-014
46           0.4339      1.043  0.0003203    0.07383 4.263E-017 9.826E-015
47           0.4339      1.043  0.0003343    0.07706 5.684E-017 1.31E-014
48           0.4329      1.041  0.0003431    0.07927 5.684E-017 1.313E-014
49           0.4334      1.042  0.0003137    0.07236 4.494E-017 1.037E-014
50            0.435      1.046  0.0002123    0.04881 7.105E-017 1.633E-014
51           0.4346      1.045  0.0002425    0.05578 7.105E-017 1.635E-014
52           0.4339      1.043  0.0003208    0.07394 7.105E-017 1.638E-014
53           0.4328       1.04   0.000345    0.07971 5.859E-017 1.354E-014
54           0.4329      1.041  0.0003431    0.07927 4.263E-017 9.849E-015
55           0.4334      1.042  0.0003137    0.07236 5.859E-017 1.352E-014
56            0.435      1.046  0.0002123    0.04881 4.263E-017  9.8E-015
57           0.4346      1.045  0.0002426    0.05582 7.246E-017 1.667E-014
58           0.4339      1.043  0.0003212    0.07404 7.105E-017 1.638E-014
59           0.4327       1.04  0.0003537    0.08174 5.859E-017 1.354E-014
60           0.4329      1.041  0.0003431    0.07927 4.263E-017 9.849E-015
61           0.4334      1.042  0.0003137    0.07236 5.859E-017 1.352E-014
62            0.435      1.046  0.0002123    0.04881 4.263E-017  9.8E-015
63           0.4346      1.045  0.0002434    0.05599 5.684E-017 1.308E-014
64           0.4339      1.043  0.0003215     0.0741 5.684E-017 1.31E-014
65           0.4326       1.04  0.0003549    0.08204 4.263E-017 9.854E-015
66           0.4326       1.04  0.0003722    0.08604 6.355E-017 1.469E-014
67           0.4329      1.041  0.0003431    0.07927 5.859E-017 1.354E-014
68           0.4334      1.042  0.0003137    0.07236 5.124E-017 1.182E-014
69            0.435      1.046  0.0002123    0.04881 5.684E-017 1.307E-014
70           0.4346      1.045  0.0002463    0.05666 7.653E-017 1.761E-014
71           0.4339      1.043  0.0003221    0.07423 4.494E-017 1.036E-014
72           0.4323      1.039  0.0003698    0.08555 5.684E-017 1.315E-014
73           0.4326       1.04  0.0003776    0.08729 5.859E-017 1.354E-014
74           0.4326       1.04  0.0003776    0.08729 5.859E-017 1.354E-014
75           0.4329      1.041  0.0003431    0.07927 4.263E-017 9.849E-015
76           0.4334      1.042  0.0003137    0.07236 5.684E-017 1.311E-014
77            0.435      1.046  0.0002123    0.04881 5.859E-017 1.347E-014
78           0.4339      1.043  0.0003248    0.07485 5.684E-017 1.31E-014
79           0.4321      1.039   0.000375    0.08677 4.263E-017 9.866E-015
80           0.4329      1.041  0.0003431    0.07927 5.124E-017 1.184E-014
81           0.4334      1.042  0.0003137    0.07236 5.859E-017 1.352E-014
82            0.435      1.046  0.0002123    0.04881 3.178E-017 7.305E-015
83           0.4339      1.043   0.000335    0.07723 4.263E-017 9.826E-015
84           0.4321      1.039  0.0003761    0.08704 7.246E-017 1.677E-014
85           0.4329      1.041  0.0003431    0.07927 5.684E-017 1.313E-014
86           0.4334      1.042  0.0003137    0.07236 7.246E-017 1.672E-014
87            0.435      1.046  0.0002123    0.04881 4.494E-017 1.033E-014
88            0.432      1.039  0.0003784    0.08758 7.653E-017 1.771E-014
89           0.4329      1.041  0.0003431    0.07927 5.684E-017 1.313E-014
90           0.4334      1.042  0.0003137    0.07236 5.859E-017 1.352E-014
91            0.435      1.046  0.0002123    0.04881 7.105E-017 1.633E-014
92            0.432      1.038  0.0003806    0.08809 5.859E-017 1.356E-014
93           0.4334      1.042  0.0003137    0.07236 7.105E-017 1.639E-014
94            0.435      1.046  0.0002123    0.04881 5.859E-017 1.347E-014
95            0.432      1.038  0.0003818    0.08839 3.178E-017 7.356E-015
96           0.4334      1.042  0.0003137    0.07236 3.178E-017 7.331E-015
97            0.435      1.046  0.0002123    0.04881 5.684E-017 1.307E-014
98           0.4319      1.038  0.0003826    0.08859 5.684E-017 1.316E-014
99           0.4334      1.042  0.0003137    0.07236 2.842E-017 6.557E-015
100           0.435      1.046  0.0002123    0.04881 5.684E-017 1.307E-014
101          0.4319      1.038  0.0003838    0.08886 2.842E-017 6.58E-015
102          0.4334      1.042  0.0003137    0.07236 2.842E-017 6.557E-015
103           0.435      1.046  0.0002123    0.04881 4.494E-017 1.033E-014
104          0.4319      1.038  0.0003837    0.08885 3.178E-017 7.357E-015
105          0.4319      1.038  0.0003845    0.08902 2.842E-017 6.581E-015
106          0.4334      1.042  0.0003137    0.07236 7.105E-017 1.639E-014
107          0.4319      1.038  0.0003837    0.08883 5.684E-017 1.316E-014
108          0.4319      1.038  0.0003849    0.08911 4.494E-017 1.041E-014
109          0.4334      1.042  0.0003137    0.07236 7.246E-017 1.672E-014
110          0.4319      1.038  0.0003836    0.08882 4.494E-017 1.04E-014
111          0.4315      1.037  0.0004005    0.09282 2.842E-017 6.587E-015
112          0.4334      1.042  0.0003137    0.07236 5.684E-017 1.311E-014
113          0.4319      1.038  0.0003835    0.08879 5.859E-017 1.357E-014
114          0.4315      1.037  0.0004021     0.0932 7.246E-017 1.679E-014
115          0.4334      1.042  0.0003137    0.07236 5.859E-017 1.352E-014
116          0.4319      1.038  0.0003833    0.08876 5.859E-017 1.357E-014
117          0.4315      1.037  0.0004019    0.09314 4.263E-017 9.881E-015
118          0.4314      1.037   0.000409    0.09481 4.494E-017 1.042E-014
119          0.4334      1.042  0.0003137    0.07236 4.263E-017 9.836E-015
120          0.4319      1.038  0.0003832    0.08873 5.859E-017 1.357E-014
121          0.4315      1.037  0.0004019    0.09314 5.859E-017 1.358E-014
122          0.4315      1.037  0.0004017    0.09311 5.859E-017 1.358E-014
123          0.4312      1.037  0.0004217    0.09779 4.263E-017 9.887E-015
124          0.4334      1.042  0.0003137    0.07236 4.263E-017 9.836E-015
125          0.4319      1.038  0.0003831     0.0887 2.842E-017 6.581E-015
126          0.4315      1.037  0.0004019    0.09314 5.859E-017 1.358E-014
127          0.4315      1.037  0.0004011    0.09297 5.859E-017 1.358E-014
128          0.4311      1.036  0.0004275    0.09915 4.494E-017 1.042E-014
129          0.4334      1.042  0.0003137    0.07236 2.842E-017 6.557E-015
130          0.4319      1.038  0.0003829    0.08866 4.494E-017 1.04E-014
131          0.4315      1.037  0.0004019    0.09314 4.263E-017 9.881E-015
132          0.4315      1.037  0.0004055    0.09398 5.684E-017 1.317E-014
133          0.4315      1.037  0.0003978    0.09219 5.859E-017 1.358E-014
134          0.4311      1.036  0.0004292    0.09956 7.246E-017 1.681E-014
135          0.4334      1.042  0.0003137    0.07236 4.494E-017 1.037E-014
136          0.4319      1.038  0.0003828    0.08863 5.684E-017 1.316E-014
137          0.4315      1.037  0.0004019    0.09314 5.859E-017 1.358E-014
138          0.4315      1.037  0.0004059    0.09407 5.684E-017 1.317E-014
139          0.4315      1.037  0.0003953    0.09161 2.842E-017 6.587E-015
140          0.4311      1.036  0.0004312        0.1 7.105E-017 1.648E-014
141          0.4334      1.042  0.0003137    0.07236 5.684E-017 1.311E-014
142          0.4319      1.038  0.0003825    0.08857 5.859E-017 1.357E-014
143          0.4315      1.037  0.0004019    0.09314 4.494E-017 1.042E-014
144          0.4315      1.037  0.0004062    0.09415 4.263E-017 9.881E-015
145          0.4315      1.037  0.0003936    0.09122 7.105E-017 1.647E-014
146           0.431      1.036   0.000433     0.1005 5.684E-017 1.319E-014
147          0.4334      1.042  0.0003137    0.07236 3.178E-017 7.331E-015
148          0.4319      1.038  0.0003814     0.0883 5.124E-017 1.186E-014
149          0.4315      1.037  0.0004019    0.09314 7.246E-017 1.679E-014
150          0.4315      1.037  0.0004065    0.09423 5.684E-017 1.317E-014
151          0.4315      1.037  0.0003917    0.09078 7.246E-017 1.679E-014
152          0.4314      1.037  0.0004137    0.09589 5.684E-017 1.318E-014
153           0.431      1.036  0.0004352      0.101 4.263E-017 9.892E-015
154          0.4334      1.042  0.0003137    0.07236 4.263E-017 9.836E-015
155          0.4319      1.038  0.0003811    0.08825 4.263E-017 9.871E-015
156          0.4315      1.037  0.0004019    0.09314 5.859E-017 1.358E-014
157          0.4315      1.037   0.000407    0.09434 5.684E-017 1.317E-014
158          0.4314      1.037  0.0003866    0.08961 5.684E-017 1.318E-014
159          0.4314      1.037   0.000415    0.09619 7.105E-017 1.647E-014
160           0.431      1.036  0.0004358     0.1011 4.494E-017 1.043E-014
161          0.4334      1.042  0.0003137    0.07236 5.684E-017 1.311E-014
162          0.4319      1.038  0.0004056    0.09392 4.494E-017 1.041E-014
163          0.4319      1.038  0.0003799    0.08797 4.494E-017 1.041E-014
164          0.4315      1.037  0.0004019    0.09314 7.105E-017 1.647E-014
165          0.4315      1.037  0.0004076    0.09447 7.246E-017 1.679E-014
166          0.4314      1.037  0.0003849    0.08921 4.494E-017 1.042E-014
167          0.4314      1.037  0.0004161    0.09646 7.246E-017 1.68E-014
168          0.4309      1.036  0.0004394      0.102 7.105E-017 1.649E-014
169          0.4334      1.042  0.0003137    0.07236 4.263E-017 9.836E-015
170          0.4318      1.038  0.0004104    0.09503 4.494E-017 1.041E-014
171          0.4319      1.038  0.0003784    0.08761 5.684E-017 1.316E-014
172          0.4315      1.037  0.0004019    0.09314 5.859E-017 1.358E-014
173          0.4315      1.037   0.000408    0.09457 4.494E-017 1.042E-014
174          0.4314      1.037  0.0003849    0.08921 5.859E-017 1.358E-014
175          0.4314      1.037    0.00036    0.08344 7.105E-017 1.647E-014
176          0.4314      1.037  0.0004166    0.09657 4.263E-017 9.882E-015
177          0.4309      1.036  0.0004414     0.1024 5.859E-017 1.36E-014
178          0.4318      1.038  0.0004205    0.09737 4.263E-017 9.872E-015
179          0.4319      1.038  0.0003787     0.0877 5.684E-017 1.316E-014
180          0.4319      1.038  0.0003642    0.08433 5.684E-017 1.316E-014
181          0.4315      1.037  0.0004019    0.09314 4.263E-017 9.881E-015
182          0.4315      1.037  0.0004085    0.09468 5.684E-017 1.317E-014
183          0.4314      1.037  0.0003849    0.08921 7.246E-017 1.68E-014
184          0.4314      1.037  0.0003573    0.08281 5.859E-017 1.358E-014
185          0.4314      1.037  0.0004177    0.09681 4.263E-017 9.882E-015
186          0.4309      1.036  0.0004429     0.1028 4.263E-017 9.894E-015
187          0.4319      1.038  0.0003802    0.08805 7.246E-017 1.678E-014
188          0.4318      1.038  0.0003058    0.07082 5.859E-017 1.357E-014
189          0.4315      1.037  0.0004019    0.09314 7.246E-017 1.679E-014
190          0.4315      1.037   0.000409    0.09479 5.859E-017 1.358E-014
191          0.4314      1.037  0.0003849    0.08921 4.263E-017 9.881E-015
192          0.4314      1.037  0.0003849    0.08921 4.494E-017 1.042E-014
193          0.4314      1.037  0.0003547    0.08221 5.684E-017 1.318E-014
194          0.4314      1.037  0.0004203    0.09743 7.105E-017 1.647E-014
195          0.4309      1.036  0.0004443     0.1031 4.494E-017 1.043E-014
196          0.4319      1.038   0.000383    0.08868 4.263E-017 9.872E-015
197          0.4318      1.038  0.0003001    0.06951 4.263E-017 9.873E-015
198          0.4318      1.038  0.0003025    0.07006 7.105E-017 1.646E-014
199          0.4315      1.037  0.0004019    0.09314 5.684E-017 1.317E-014
200          0.4314      1.037  0.0004095    0.09491 5.684E-017 1.317E-014
...
